# CIF file generated by openbabel 3.1.1, see https://openbabel.org
data_I
_chemical_name_common 'BasoliteA520'
_cell_length_a 6.8419
_cell_length_b 12.0877
_cell_length_c 14.207
_cell_angle_alpha 90
_cell_angle_beta 122.547
_cell_angle_gamma 90
_space_group_name_H-M_alt 'P 1 21/c 1'
_space_group_name_Hall '-P 2ybc'
loop_
    _symmetry_equiv_pos_as_xyz
    x,y,z
    -x,1/2+y,1/2-z
    -x,-y,-z
    x,1/2-y,1/2+z
loop_
    _atom_site_label
    _atom_site_type_symbol
    _atom_site_fract_x
    _atom_site_fract_y
    _atom_site_fract_z
    _atom_site_occupancy
    Al1      Al       0.50000    0.50000    0.00000    1.000
    Al2      Al       0.00000    0.50000    0.00000    1.000
    O1       O        0.18012    0.51731    0.94015    1.000
    O2       O        0.24705    0.40015    0.11591    1.000
    O3       O        0.53844    0.36877    0.08438    1.000
    O4       O        0.45060    0.09330    0.37967    1.000
    O5       O        0.78276    0.11334    0.39942    1.000
    C1       C        0.42977    0.34699    0.13382    1.000
    C2       C        0.55444    0.26496    0.22203    1.000
    C3       C        0.45578    0.22792    0.27381    1.000
    C4       C        0.57869    0.14099    0.36040    1.000
    H2       H        0.72968    0.23217    0.24306    1.000
    H3       H        0.27772    0.25787    0.25162    1.000
    H1       H        0.07705    0.47442    0.86934    1.000
