# CIF file generated by openbabel 3.1.1, see https://openbabel.org
data_I
_chemical_name_common 'CAU-10-H'
_cell_length_a 21.547
_cell_length_b 21.547
_cell_length_c 10.378
_cell_angle_alpha 90
_cell_angle_beta 90
_cell_angle_gamma 90
_space_group_name_H-M_alt 'I 41'
_space_group_name_Hall 'I 4bw'
loop_
    _symmetry_equiv_pos_as_xyz
    x,y,z
    1/2-x,1/2-y,1/2+z
    -y,1/2+x,1/4+z
    1/2+y,-x,3/4+z
    1/2+x,1/2+y,1/2+z
    -x,-y,z
    1/2-y,x,3/4+z
    y,1/2-x,1/4+z
loop_
    _atom_site_label
    _atom_site_type_symbol
    _atom_site_fract_x
    _atom_site_fract_y
    _atom_site_fract_z
    _atom_site_occupancy
    Al1      Al       0.25440    0.31830    0.37190    1.000
    Al2      Al       0.24700    0.68260    0.35180    1.000
    C1       C        0.20480    0.38640    0.12900    1.000
    C2       C        0.29330    0.38340    0.60200    1.000
    C3       C        0.29710    0.61210    0.58040    1.000
    C4       C        0.20510    0.61700    0.13680    1.000
    C5       C        0.20260    0.44846    0.05980    1.000
    C6       C        0.21700    0.49810    0.13380    1.000
    C7       C        0.20710    0.55640    0.06650    1.000
    C8       C        0.18160    0.56810    0.94190    1.000
    C9       C        0.17290    0.51410    0.87680    1.000
    C10      C        0.18290    0.45500    0.93390    1.000
    C11      C        0.31480    0.55650    0.66110    1.000
    C12      C        0.29270    0.50710    0.59100    1.000
    C13      C        0.30190    0.44800    0.65020    1.000
    C14      C        0.33210    0.44740    0.77490    1.000
    C15      C        0.34220    0.50290    0.84390    1.000
    C16      C        0.34520    0.56090    0.78160    1.000
    O1       O        0.15750    0.68030    0.38280    1.000
    O2       O        0.16430    0.31940    0.39140    1.000
    O3       O        0.24120    0.37420    0.22410    1.000
    O4       O        0.24970    0.74550    0.46880    1.000
    O5       O        0.34120    0.30560    0.30920    1.000
    O6       O        0.33090    0.68470    0.34800    1.000
    O7       O        0.26530    0.38970    0.49230    1.000
    O8       O        0.27030    0.25510    0.48080    1.000
    O9       O        0.26080    0.61650    0.48310    1.000
    O10      O        0.24460    0.61210    0.23060    1.000
    H28      H        0.23316    0.49496    0.22721    1.000
    H29      H        0.17125    0.61159    0.90615    1.000
    H30      H        0.15840    0.51603    0.78204    1.000
    H31      H        0.17524    0.41565    0.87946    1.000
    H32      H        0.27127    0.51228    0.50270    1.000
    H33      H        0.34650    0.40572    0.81384    1.000
    H34      H        0.34747    0.50095    0.94267    1.000
    H35      H        0.36618    0.60027    0.81788    1.000
    H36      H        0.24375    0.78480    0.42494    1.000
    H37      H        0.26672    0.21604    0.43505    1.000
