# CIF file generated by openbabel 3.1.1, see https://openbabel.org
data_I
_chemical_name_common 'MOF-801'
_cell_length_a 17.8348
_cell_length_b 17.8348
_cell_length_c 17.8348
_cell_angle_alpha 90
_cell_angle_beta 90
_cell_angle_gamma 90
_space_group_name_H-M_alt 'P n 3'
_space_group_name_Hall '-P 2ab 2bc 3'
loop_
    _symmetry_equiv_pos_as_xyz
    x,y,z
    1/2-x,1/2-y,z
    1/2-x,y,1/2-z
    x,1/2-y,1/2-z
    z,x,y
    z,1/2-x,1/2-y
    1/2-z,1/2-x,y
    1/2-z,x,1/2-y
    y,z,x
    1/2-y,z,1/2-x
    y,1/2-z,1/2-x
    1/2-y,1/2-z,x
    -x,-y,-z
    1/2+x,1/2+y,-z
    1/2+x,-y,1/2+z
    -x,1/2+y,1/2+z
    -z,-x,-y
    -z,1/2+x,1/2+y
    1/2+z,1/2+x,-y
    1/2+z,-x,1/2+y
    -y,-z,-x
    1/2+y,-z,1/2+x
    -y,1/2+z,1/2+x
    1/2+y,1/2+z,-x
loop_
    _atom_site_label
    _atom_site_type_symbol
    _atom_site_fract_x
    _atom_site_fract_y
    _atom_site_fract_z
    _atom_site_occupancy
    Zr1      Zr       0.13785    0.51113    0.01188    1.000
    O4       O        0.20900    0.40850    0.00800    1.000
    O5       O        0.19040    0.62460    0.02460    1.000
    O6       O        0.18960    0.50730    0.12630    1.000
    O7       O        0.20880    0.52390    0.90940    1.000
    C11      C        0.16040    0.68910    0.02400    1.000
    C13      C        0.21420    0.75550    0.02430    1.000
    H13      H        0.19550    0.80420    0.02440    1.000
    C1       C        0.19060    0.33980    0.00000    1.000
    C2       C        0.25670    0.28650    0.00010    1.000
    H2       H        0.30560    0.30460    0.00010    1.000
    O1       O        0.07650    0.59170    0.93530    0.500
    O8       O        0.05960    0.44040    0.05960    0.500
    O3       O        0.05960    0.56860    0.95040    0.500
    O2       O        0.07850    0.42150    0.07850    0.500
