# CIF file generated by openbabel 2.3.90, see http://openbabel.sf.net
data_I
_chemical_name_common ''
_cell_length_a 21.0738
_cell_length_b 21.0738
_cell_length_c 10.6469
_cell_angle_alpha 90
_cell_angle_beta 90
_cell_angle_gamma 90
_space_group_name_H-M_alt 'I 41/a m d'
_space_group_name_Hall 'I 4bw 2bw -1bw'
loop_
    _symmetry_equiv_pos_as_xyz
    x,y,z
    1/2-x,1/2-y,1/2+z
    -y,1/2+x,1/4+z
    1/2+y,-x,3/4+z
    1/2-x,y,3/4-z
    x,1/2-y,1/4-z
    1/2+y,1/2+x,1/2-z
    -y,-x,-z
    -x,1/2-y,1/4-z
    1/2+x,y,3/4-z
    y,-x,-z
    1/2-y,1/2+x,1/2-z
    1/2+x,1/2-y,1/2+z
    -x,y,z
    1/2-y,-x,3/4+z
    y,1/2+x,1/4+z
    1/2+x,1/2+y,1/2+z
    -x,-y,z
    1/2-y,x,3/4+z
    y,1/2-x,1/4+z
    -x,1/2+y,1/4-z
    1/2+x,-y,3/4-z
    y,x,-z
    1/2-y,1/2-x,1/2-z
    1/2-x,-y,3/4-z
    x,1/2+y,1/4-z
    1/2+y,1/2-x,1/2-z
    -y,x,-z
    x,-y,z
    1/2-x,1/2+y,1/2+z
    -y,1/2-x,1/4+z
    1/2+y,x,3/4+z
loop_
    _atom_site_label
    _atom_site_type_symbol
    _atom_site_fract_x
    _atom_site_fract_y
    _atom_site_fract_z
    _atom_site_occupancy
